
 OpenBabel01132216293D

 46 50  0  0  0  0  0  0  0  0999 V2000
    3.5425    1.7594   -0.3301 C   0  0  0  0  0  0  0  0  0  0  0  0
    4.0722    0.4271   -0.6414 C   0  0  0  0  0  0  0  0  0  0  0  0
    5.4046    0.5948   -0.9332 C   0  0  0  0  0  0  0  0  0  0  0  0
    5.7077    2.0233   -0.7938 C   0  0  0  0  0  0  0  0  0  0  0  0
    4.6359    2.6819   -0.4602 N   0  0  0  0  0  0  0  0  0  0  0  0
    2.2453    2.0144    0.0720 C   0  0  0  0  0  0  0  0  0  0  0  0
    7.0919    2.5986   -1.0326 C   0  0  0  0  0  0  0  0  0  0  0  0
    7.3872    3.9289   -0.9362 C   0  0  0  0  0  0  0  0  0  0  0  0
    8.6769    4.5272   -1.2897 C   0  0  0  0  0  0  0  0  0  0  0  0
    8.5027    5.8810   -1.2020 C   0  0  0  0  0  0  0  0  0  0  0  0
    7.1119    6.1176   -0.7855 C   0  0  0  0  0  0  0  0  0  0  0  0
    6.4932    4.9905   -0.6104 N   0  0  0  0  0  0  0  0  0  0  0  0
    6.5369    7.5128   -0.6292 C   0  0  0  0  0  0  0  0  0  0  0  0
    5.2649    7.8237   -0.2552 C   0  0  0  0  0  0  0  0  0  0  0  0
    4.7558    9.1077   -0.0951 C   0  0  0  0  0  0  0  0  0  0  0  0
    3.4494    8.9743    0.3283 C   0  0  0  0  0  0  0  0  0  0  0  0
    3.1696    7.6119    0.3767 C   0  0  0  0  0  0  0  0  0  0  0  0
    4.2960    6.9361    0.0353 N   0  0  0  0  0  0  0  0  0  0  0  0
    1.9680    7.0662    0.7505 C   0  0  0  0  0  0  0  0  0  0  0  0
    1.6437    5.5718    0.7432 C   0  0  0  0  0  0  0  0  0  0  0  0
    0.5408    5.0173    1.3785 C   0  0  0  0  0  0  0  0  0  0  0  0
    0.5988    3.6456    1.1936 C   0  0  0  0  0  0  0  0  0  0  0  0
    1.7373    3.3845    0.4523 C   0  0  0  0  0  0  0  0  0  0  0  0
    2.3351    4.5562    0.1489 N   0  0  0  0  0  0  0  0  0  0  0  0
    3.5448   -0.5177   -0.6478 H   0  0  0  0  0  0  0  0  0  0  0  0
    6.0899   -0.1968   -1.2053 H   0  0  0  0  0  0  0  0  0  0  0  0
    1.3847    0.8368    0.3047 C   0  0  0  0  0  0  0  0  0  0  0  0
    9.5919    4.0317   -1.5878 H   0  0  0  0  0  0  0  0  0  0  0  0
    9.2648    6.6190   -1.4157 H   0  0  0  0  0  0  0  0  0  0  0  0
    5.2735   10.0468   -0.2464 H   0  0  0  0  0  0  0  0  0  0  0  0
    2.7786    9.7941    0.5515 H   0  0  0  0  0  0  0  0  0  0  0  0
   -0.2192    5.5466    1.9378 H   0  0  0  0  0  0  0  0  0  0  0  0
   -0.1020    2.9210    1.5860 H   0  0  0  0  0  0  0  0  0  0  0  0
    3.1647    4.5915   -0.4572 H   0  0  0  0  0  0  0  0  0  0  0  0
    4.4581    5.9296    0.0394 H   0  0  0  0  0  0  0  0  0  0  0  0
    0.4000   -0.8467    1.0589 C   0  0  0  0  0  0  0  0  0  0  0  0
   -0.0682   -1.6469    1.4175 H   0  0  0  0  0  0  0  0  0  0  0  0
    7.4415    8.6039   -0.9550 C   0  0  0  0  0  0  0  0  0  0  0  0
    8.1236    9.5673   -1.2087 C   0  0  0  0  0  0  0  0  0  0  0  0
    8.7831   10.3642   -1.4354 H   0  0  0  0  0  0  0  0  0  0  0  0
    8.1390    1.7511   -1.6513 C   0  0  0  0  0  0  0  0  0  0  0  0
    0.9924    7.9738    1.3996 C   0  0  0  0  0  0  0  0  0  0  0  0
    8.8647    1.0462   -2.1524 C   0  0  0  0  0  0  0  0  0  0  0  0
    9.5037    0.4256   -2.5935 H   0  0  0  0  0  0  0  0  0  0  0  0
    0.0511    8.9182    2.0487 C   0  0  0  0  0  0  0  0  0  0  0  0
   -0.5799    9.5512    2.4837 H   0  0  0  0  0  0  0  0  0  0  0  0
  1  2  1  0  0  0  0
  1  6  2  0  0  0  0
  2  3  2  0  0  0  0
  2 25  1  0  0  0  0
  3  4  1  0  0  0  0
  3 26  1  0  0  0  0
  4  5  2  0  0  0  0
  4  7  1  0  0  0  0
  5  1  1  0  0  0  0
  6 23  1  0  0  0  0
  6 27  1  0  0  0  0
  7  8  2  0  0  0  0
  7 41  1  0  0  0  0
  8  9  1  0  0  0  0
  9 10  2  0  0  0  0
  9 28  1  0  0  0  0
 10 11  1  0  0  0  0
 10 29  1  0  0  0  0
 11 12  2  0  0  0  0
 11 13  1  0  0  0  0
 12  8  1  0  0  0  0
 13 14  2  0  0  0  0
 13 38  1  0  0  0  0
 14 15  1  0  0  0  0
 15 16  2  0  0  0  0
 15 30  1  0  0  0  0
 16 17  1  0  0  0  0
 16 31  1  0  0  0  0
 17 18  1  0  0  0  0
 17 19  2  0  0  0  0
 18 14  1  0  0  0  0
 18 35  1  0  0  0  0
 19 20  1  0  0  0  0
 19 42  1  0  0  0  0
 20 21  2  0  0  0  0
 21 22  1  0  0  0  0
 21 32  1  0  0  0  0
 22 23  2  0  0  0  0
 22 33  1  0  0  0  0
 23 24  1  0  0  0  0
 24 20  1  0  0  0  0
 24 34  1  0  0  0  0
 27 36  3  0  0  0  0
 36 37  1  0  0  0  0
 38 39  3  0  0  0  0
 39 40  1  0  0  0  0
 41 43  3  0  0  0  0
 42 45  3  0  0  0  0
 43 44  1  0  0  0  0
 45 46  1  0  0  0  0
M  END
